Infrared Spectrum: Ethane, 1,1,2-trichloro-1,2,2-trifluoro-
Formula: C 2 Cl 3 F 3
CAS: 76-13-1
State: gas
Origin: Sadtler Research Labs Under US-EPA Contract
1/CM	ABSORBANCE
450	0.00516989
463.575	0.00786254
477.151	0.0071086
490.726	0.00947813
504.301	0.00937042
517.876	0.00603154
531.452	0.000861648
545.027	0.00129247
558.602	0.000215412
572.178	0.00150788
585.753	0.00280036
599.328	0.00398512
612.903	0.00829336
626.479	0.00969354
640.054	0.00829336
653.629	0.00678548
667.205	0.00775483
680.78	0.00807795
694.355	0.0126016
707.931	0.0168021
721.506	0.0189563
735.081	0.0198179
748.656	0.0176638
762.232	0.0123862
775.807	0.00376971
789.382	0.00129247
802.958	0.0017233
816.533	0.00215412
830.108	0.00398512
843.683	0.00193871
857.259	0.003662
870.834	0.00409283
884.409	0.00398512
897.985	0.00193871
911.56	0.00344659
925.135	0.00247724
938.71	0.00387742
952.286	0.003662
965.861	0.00409283
979.436	0.00506218
993.012	0.00484677
1006.59	0.00452365
1020.16	0.00861648
1033.74	0.013571
1047.31	0.0210027
1060.89	0.0286498
1074.46	0.0351122
1088.04	0.031127
1101.61	0.0374817
1115.19	0.041036
1128.76	0.0476061
1142.34	0.0543915
1155.92	0.0466367
1169.49	0.0374817
1183.07	0.0203564
1196.64	0.00818566
1210.22	0.00613924
1223.79	0.00463136
1237.37	0.00290806
1250.94	0.00398512
1264.52	0.00376971
1278.09	0.00398512
1291.67	0.00333889
1305.24	0.00376971
1318.82	0.00441595
1332.39	0.00441595
1345.97	0.00420053
1359.54	0.00387742
1373.12	0.00473906
1386.69	0.00560071
1400.27	0.00603154
1413.85	0.00603154
1427.42	0.00592383
1441	0.00646236
1454.57	0.00635465
1468.15	0.00624695
1481.72	0.00613924
1495.3	0.00581612
1508.87	0.00732401
1522.45	0.0089396
1536.02	0.0151865
1549.6	0.0241261
1563.17	0.0362969
1576.75	0.0476061
1590.32	0.0654852
1603.9	0.097797
1617.47	0.170283
1631.05	0.309762
1644.63	0.520759
1658.2	0.776776
1671.78	0.97097
1685.35	1.07706
1698.93	0.957722
1712.5	0.69955
1726.08	0.368462
1739.65	0.167052
1753.23	0.0966123
1766.8	0.0767944
1780.38	0.06667
1793.95	0.063008
1807.53	0.0638697
1821.1	0.0686087
1834.68	0.0812103
1848.25	0.102213
1861.83	0.137217
1875.41	0.180192
1888.98	0.23146
1902.56	0.284021
1916.13	0.339274
1929.71	0.378048
1943.28	0.440733
1956.86	0.527544
1970.43	0.614355
1984.01	0.709244
1997.58	0.768913
2011.16	0.763097
2024.73	0.670362
2038.31	0.52399
2051.88	0.39582
2065.46	0.283698
2079.03	0.20001
2092.61	0.130647
2106.19	0.0800256
2119.76	0.0416822
2133.34	0.0249878
2146.91	0.0200333
2160.49	0.0192794
2174.06	0.0198179
2187.64	0.0224028
2201.21	0.0252032
2214.79	0.0275727
2228.36	0.0280036
2241.94	0.0268188
2255.51	0.023803
2269.09	0.0199256
2282.66	0.0168021
2296.24	0.015402
2309.81	0.0168021
2323.39	0.0204641
2336.97	0.0254186
2350.54	0.0327426
2364.12	0.0469598
2377.69	0.0759327
2391.27	0.133017
2404.84	0.224352
2418.42	0.340566
2431.99	0.476922
2445.57	0.612309
2459.14	0.636973
2472.72	0.598953
2486.29	0.527544
2499.87	0.389573
2513.44	0.270665
2527.02	0.157143
2540.59	0.0840107
2554.17	0.0541761
2567.75	0.0462059
2581.32	0.0444826
2594.9	0.0530991
2608.47	0.0715168
2622.05	0.101244
2635.62	0.148096
2649.2	0.223382
2662.77	0.344767
2676.35	0.508695
2689.92	0.66153
2703.5	0.767621
2717.07	0.816842
2730.65	0.514081
2744.22	0.37514
2757.8	0.188378
2771.37	0.0701166
2784.95	0.0368355
2798.53	0.03662
2812.1	0.050191
2825.68	0.0770098
2839.25	0.134202
2852.83	0.231029
2866.4	0.365446
2879.98	0.531098
2893.55	0.691149
2907.13	0.771821
2920.7	0.866926
2934.28	0.70429
2947.85	0.63008
2961.43	0.504818
2975	0.39722
2988.58	0.406052
3002.15	0.445364
3015.73	0.488662
3029.31	0.485539
3042.88	0.401313
3056.46	0.278528
3070.03	0.171253
3083.61	0.0823951
3097.18	0.0342505
3110.76	0.0189563
3124.33	0.0168021
3137.91	0.0174484
3151.48	0.0184177
3165.06	0.0185254
3178.63	0.0174484
3192.21	0.0158328
3205.78	0.0137864
3219.36	0.0123862
3232.93	0.0105552
3246.51	0.00958583
3260.08	0.00861648
3273.66	0.00764713
3287.24	0.00667777
3300.81	0.00603154
3314.39	0.00560071
3327.96	0.00527759
3341.54	0.00527759
3355.11	0.00495448
3368.69	0.00473906
3382.26	0.00484677
3395.84	0.00527759
3409.41	0.00570842
3422.99	0.00657007
3436.56	0.00797024
3450.14	0.00937042
3463.71	0.0113091
3477.29	0.0123862
3490.86	0.0122785
3504.44	0.0116322
3518.02	0.0105552
3531.59	0.0100167
3545.17	0.00990895
3558.74	0.0103398
3572.32	0.0110937
3585.89	0.0119554
3599.47	0.0119554
3613.04	0.0107706
3626.62	0.00958583
3640.19	0.00818566
3653.77	0.00732401
3667.34	0.00743171
3680.92	0.0072163
3694.49	0.00753942
3708.07	0.00786254
3721.64	0.0071086
3735.22	0.00646236
3748.8	0.00484677
3762.37	0.00409283
3775.95	0.00269265
3789.52	0.00269265
3803.1	0.001831
3816.67	0.00215412
3830.25	0.00204641
3843.82	0.00226183
3857.4	0.00280036
3870.97	0.00226183
3884.55	0.00344659
3898.12	0.00280036
3911.7	0.00312347
3925.27	0.00290806
3938.85	0.00312347
3952.42	0.00258494
3966	0.00290806
